data_functionalizedCrystal
_audit_creation_method	'MofGen! by Chris Wilmer'
_symmetry_space_group_name_H-M	'P1'
_symmetry_Int_Tables_number	1
_symmetry_cell_setting	triclinic
loop_
_symmetry_equiv_pos_as_xyz
  x,y,z
_cell_length_a	12.759393
_cell_length_b	12.759401
_cell_length_c	12.759399
_cell_angle_alpha	89.983359
_cell_angle_beta	89.967969
_cell_angle_gamma	90.019837
loop_
_atom_site_label
_atom_site_type_symbol
_atom_site_fract_x
_atom_site_fract_y
_atom_site_fract_z
Zn1	Zn	-0.594017	-1.606252	-0.418161
Zn2	Zn	-0.418336	-1.606145	-0.593880
Zn3	Zn	-0.418352	-1.430554	-0.418220
Zn4	Zn	-0.593973	-1.430541	-0.593803
O5	O	-0.506170	-1.518373	-0.506016
O6	O	-0.570724	-1.753259	-0.441478
O7	O	-0.271317	-1.582813	-0.570635
O8	O	-0.441680	-1.453911	-0.271191
O9	O	-0.441652	-1.753180	-0.570578
O10	O	-0.570740	-1.582995	-0.271148
O11	O	-0.271329	-1.453807	-0.441579
O12	O	-0.441637	-1.283531	-0.441505
O13	O	-0.741000	-1.453889	-0.570447
O14	O	-0.570665	-1.283522	-0.570504
O15	O	-0.741032	-1.582983	-0.441403
O16	O	-0.441609	-1.582801	-0.740891
O17	O	-0.570649	-1.453785	-0.740834
C18	C	-0.506149	-1.245406	-0.506003
C19	C	-0.506165	-1.128629	-0.506023
C20	C	-0.506146	-1.518309	-0.778984
C21	C	-0.506171	-1.518377	-0.895760
C22	C	-0.780203	-1.518446	-0.505910
C23	C	-0.896980	-1.518478	-0.505865
C24	C	-0.951848	-1.451328	-0.438653
C25	C	-1.061572	-1.451353	-0.438620
C26	C	-1.061551	-1.585685	-0.573015
C27	C	-0.951829	-1.585654	-0.573052
C28	C	-0.233202	-1.518360	-0.506046
C29	C	-0.116426	-1.518533	-0.505796
C30	C	-0.506191	-1.792406	-0.506030
C31	C	-0.506200	-1.909183	-0.506036
C32	C	-0.573244	-1.073790	-0.573296
C33	C	-0.573265	-0.964066	-0.573300
C34	C	-0.439118	-0.964030	-0.438756
C35	C	-0.439104	-1.073752	-0.438747
C36	C	-0.439056	-1.585632	-0.950617
C37	C	-0.439091	-1.585700	-1.060341
C38	C	-0.573359	-1.451248	-1.060342
C39	C	-0.573328	-1.451187	-0.950620
C40	C	-0.506217	-1.518466	-0.231983
C41	C	-0.506237	-1.518506	-0.115206
H42	H	-0.907193	-1.396629	-0.383945
F43	F	-0.367750	-0.905617	-0.367161
H44	H	-1.106240	-1.396672	-0.383891
F45	F	-0.367583	-1.657144	-0.892234
F46	F	-0.644769	-1.379606	-0.892234
H47	H	-0.384480	-1.118403	-0.383959
H48	H	-1.106222	-1.640379	-0.627715
F49	F	-0.644619	-1.132190	-0.644894
F50	F	-0.893431	-1.657124	-0.644596
F51	F	-0.367661	-1.657284	-1.118718
H52	H	-0.627889	-0.919420	-0.628078
H53	H	-0.628034	-1.396543	-1.105022
